*SRC=1N4004;DI_1N4004;Diodes;Si;  400V  1.00A  3.00us   Diodes, Inc. diode
.MODEL DI_1N4004 D  ( IS=76.9p RS=42.0m BV=400 IBV=5.00u
+ CJO=39.8p  M=0.333 N=1.45 TT=4.32u )