.model BD911 NPN(IS=2.53133E-13 BF=886.474 NF=0.85 VAF=86.5699 IKF=1 ISE=3.83814E-10 NE=1.64879 BR=0.1 NR=1.02906 VAR=1.23433 IKR=10 ISC=2.5002E-13 NC=3.99999 RB=0.74113 IRB=0.1 RBM=0.74113 RE=0.0136941 RC=0.0684703 CJE=9.84329E-09 VJE=0.701902 MJE=0.85 TF=9.08724E-10 XTF=2000 VTF=0.547983 ITF=0.0242429 CJC=2.39469E-10 VJC=0.4 MJC=0.402994 XCJC=0.1 TR=1E-07 CJS=0 VJS=0.75 MJS=0.5 XTB=0.418994 EG=1.206 XTI=1 FC=0.8)
.model BD912 PNP(IS=1.000E-09 BF=3.500E+02 NF=1.009E+00 VAF=1.000E+02 IKF=3.571E-01 ISE=2.107E-08 NE=1.897E+00 BR=4.056E+00 NR=1.000E+00 VAR=5.000E+01 IKR=1.000E+09 ISC=0.000E+00 NC=2.000E+00 RB=1.297 IRB=1 RBM=1.297 RE=2.911E-02 RC=1.674E-01 CJE=1.400E-08 VJE=7.500E-01 MJE=3.300E-01 TF=2.767E-08 XTF=7.974E-01 VTF=9.990E+05 ITF=3.675E+01
.MODEL BD140 PNP ( IS=2.9537E-13 BF=201.4 NF=1.0 BR=23.765 NR=1.021 ISE=1.8002E-13 NE=1.5 ISC=7.0433p NC=1.38 VAF=137.0 VAR=8.41 IKF=1.0993 IKR=0.10 RB=1.98 RBM=0.01 IRB=0.011 RE=0.1109 RC=0.01 CJE=2.1982E-10 VJE=0.7211 MJE=0.3685 FC=0.5 CJC=6.8291E-11 VJC=0.5499 MJC=0.3668 XCJC=0.5287 XTB=1.4883 EG=1.2343 XTI=3.0 Vceo=80 Icrating=3 mfg=fairchild)
.MODEL BD139 NPN ( IS=2.3985E-13 BF=244.9 NF=1.0 BR=78.11 NR=1.007 ISE=1.0471E-14 NE=1.2 ISC=1.9314E-11 NC=1.45 VAF=98.5 VAR=7.46 IKF=1.1863 IKR=0.1445 RB=2.14 RBM=0.001 IRB=0.031 RE=0.0832 RC=0.01 CJE=2.92702E-10 VJE=0.67412 MJE=0.3300 FC=0.5 CJC=4.8831E-11 VJC=0.5258 MJC=0.3928 XCJC=0.5287 XTB=1.1398 EG=1.2105 XTI=3.0 Vceo=80 Icrating=3 mfg=fairchild)
.MODEL BD139_Cordell npn IS=150f BF=260 VAF=99 IKF=1.2 ISE=70f NE=1.2 NF=1.0 RB=5 RC=0.01 RE=0.08 CJE=293p MJE=0.33 VJE=0.67 CJC=49p MJC=0.39 VJC=0.52 FC=0.5 TF=585p XTF=10000 VTF=35 ITF=20 TR=10n BR=78 IKR=0.14 EG=1.21 XTB=1.14 XTI=3 NC=1.45 ISC=19p NR=1.0 VAR=7.5 IRB=0.03 RBM=0.001 XCJC=0.53 mfg=CA041311
