*  Modification of the original supertex.lib
*    All the .ENDS SPICE lines have been changed to comment *.ENDS .
*  
*
*   SUPERTEX DMOS SPICE MODEL LIBRARY  (2/02)
*
*2N6660 MODEL
*
.MODEL 2N6660   NMOS (LEVEL=3   RS=0.36            NSUB=1.0E15
+DELTA=0.1      KAPPA=0.0506    TPG=1              CGDO=6.343E-10
+RD=0.43        VTO=1.600       VMAX=1.0E7         ETA=0.0223089
+NFS=6.6E10     TOX=1.0E-7      LD=1.698E-9        UO=862.425
+XJ=6.4666E-7   THETA=1.0E-5    CGSO=9.09E-9       L=2.5E-6
+W=5.0E-3)
*.ENDS
*
*2N6661 MODEL
*
.MODEL 2N6661   NMOS (LEVEL=3   RS=0.36            NSUB=1.0E15
+DELTA=0.1      KAPPA=0.0506    TPG=1              CGDO=6.343E-10
+RD=0.43        VTO=1.600       VMAX=1.0E7         ETA=0.0223089
+NFS=6.6E10     TOX=1.0E-7      LD=1.698E-9        UO=862.425
+XJ=6.4666E-7   THETA=1.0E-5    CGSO=9.09E-9       L=2.5E-6
+W=5.0E-3)
*.ENDS
*
*2N7000 MODEL
*
.MODEL 2N7000   NMOS (LEVEL=3   RS=0.205           NSUB=1.0E15
+DELTA=0.1      KAPPA=0.0506    TPG=1              CGDO=3.1716E-9
+RD=0.239       VTO=1.000       VMAX=1.0E7         ETA=0.0223089
+NFS=6.6E10     TOX=1.0E-7      LD=1.698E-9        UO=862.425
+XJ=6.4666E-7   THETA=1.0E-5    CGSO=9.09E-9       L=2.5E-6
+W=0.8E-2)
*.ENDS
*
*2N7002 MODEL
*
.MODEL 2N7002   NMOS (LEVEL=3   RS=0.0405          NSUB=1.0E15
+DELTA=0.1      KAPPA=0.0506    TPG=1              CGDO=6.1716E-10
+RD=1.22        VTO=2.00        VMAX=1.0E7         ETA=0.0223089
+NFS=6.6E10     TOX=1.0E-7      LD=1.698E-9        UO=862.425
+XJ=6.4666E-7   THETA=1.0E-5    CGSO=9.10E-9       L=2.5E-6
+W=0.5E-2)
*.ENDS
*
*2N7008 MODEL
*
.MODEL 2N7008   NMOS (LEVEL=3   RS=0.0405          NSUB=1.0E15
+DELTA=0.1      KAPPA=0.0506    TPG=1              CGDO=6.1716E-10
+RD=1.22        VTO=2.00        VMAX=1.0E7         ETA=0.0223089
+NFS=6.6E10     TOX=1.0E-7      LD=1.698E-9        UO=862.425
+XJ=6.4666E-7   THETA=1.0E-5    CGSO=9.10E-9       L=2.5E-6
+W=0.5E-2)
*.ENDS
*
*DN2530 MODEL
*
.MODEL DN2530   NMOS (LEVEL=3   RS=0.25            NSUB=5.0E14
+DELTA=0.1      KAPPA=0.20      TPG=1              CGDO=3.1716E-10
+RD=7.0         VTO=-2.20       VMAX=1.0E7         ETA=0.0223089
+NFS=6.6E10     TOX=750E-10     LD=1.698E-9        UO=862.425
+XJ=6.4666E-7   THETA=1.0E-5    CGSO=2.50E-9       L=3.0E-6
+W=59E-3        KP=12E-6)
*.ENDS
*
*DN2535 MODEL
*
.MODEL DN2535   NMOS (LEVEL=3   RS=1.05            NSUB=5.0E14
+DELTA=0.1      KAPPA=0.20      TPG=1              CGDO=3.1716E-10
+RD=11          VTO=-1.50       VMAX=1.0E7         ETA=0.0223089
+NFS=6.6E10     TOX=725E-10     LD=1.698E-9        UO=862.425
+XJ=6.4666E-7   THETA=1.0E-5    CGSO=2.50E-9       L=4.0E-6
+W=59E-3)
*.ENDS
*
*DN2540 MODEL
*
.MODEL DN2540   NMOS (LEVEL=3   RS=1.05            NSUB=5.0E14
+DELTA=0.1      KAPPA=0.20      TPG=1              CGDO=3.1716E-10
+RD=11          VTO=-1.50       VMAX=1.0E7         ETA=0.0223089
+NFS=6.6E10     TOX=725E-10     LD=1.698E-9        UO=862.425
+XJ=6.4666E-7   THETA=1.0E-5    CGSO=2.50E-9       L=4.0E-6
+W=59E-3)
*.ENDS
*
*LND150 MODEL
*
.MODEL LND150   NMOS (LEVEL=3   RS=150.00          NSUB=5.0E13
+DELTA=0.1      KAPPA=1.O       TPG=1              CGDO=2.1716E-12
+RD=40.0        VTO=-2.0        VMAX=1.0E8         ETA=0.1
+NFS=6.6E10     TOX=1.0E-7      LD=1.698E-9        UO=862.425
+XJ=6.4666E-7   THETA=1.0E-5    CGSO=5.09E-10      L=10.0E-6
+W=600E-6)
*.ENDS
*
*LND250 MODEL
*
.MODEL LND250   NMOS (LEVEL=3   RS=150.00          NSUB=5.0E13
+DELTA=0.1      KAPPA=1.O       TPG=1              CGDO=2.1716E-12
+RD=40.0        VTO=-2.0        VMAX=1.0E8         ETA=0.1
+NFS=6.6E10     TOX=1.0E-7      LD=1.698E-9        UO=862.425
+XJ=6.4666E-7   THETA=1.0E-5    CGSO=5.09E-10      L=10.0E-6
+W=600E-6)
*.ENDS
*
*LP0701 MODEL
*
.MODEL LP0701   PMOS (LEVEL=3   RS=0.10            NSUB=1.0E15
+DELTA=0.1      KAPPA=0.10123   TPG=-1             CGDO=8.3432E-10
+RD=0.350       VTO=-0.50       VMAX=1.0E7         ETA=0.0223089
+NFS=6.6E10     TOX=3.5E-8      LD=1.698E-9        UO=862.425
+XJ=6.4666E-7   THETA=1.0E-5    CGSO=5.21798E-9    L=3.0E-6
+W=3.82E-1      KP=2.6E-6)
*.ENDS
*
*TD9944 MODEL
*
.MODEL TD9944   NMOS (LEVEL=3   RS=0.02            NSUB=3.0E15
+DELTA=1.0      KAPPA=1.20      TPG=1              CGDO=1.916E-10
+RD=2.5         VTO=1.500       VMAX=5.0E6         ETA=0.053089
+NFS=6.6E10     TOX=725E-10     LD=1.698E-9        UO=862.425
+XJ=6.4666E-7   THETA=1.0E-5    CGSO=1.750E-9      L=2.0E-6
+W=59E-3        KP=2.5E-6)
*.ENDS
*
*TN0104 MODEL
*
.MODEL TN0104   NMOS (LEVEL=3   RS=0.0205          NSUB=1.0E15
+DELTA=0.1      KAPPA=0.0506    TPG=1              CGDO=6.1716E-10
+RD=0.239       VTO=1.000       VMAX=1.0E7         ETA=0.0223089
+NFS=6.6E10     TOX=1.00E-7     LD=1.698E-9        UO=862.425
+XJ=6.4666E-7   THETA=1.0E-5    CGSO=9.10E-9       L=2.5E-6
+W=0.9E-2)
*.ENDS
*
*TN0106 MODEL
*
.MODEL TN0106   NMOS (LEVEL=3   RS=0.205           NSUB=1.0E15
+DELTA=0.1      KAPPA=0.0506    TPG=1              CGDO=3.1716E-9
+RD=0.239       VTO=1.000       VMAX=1.0E7         ETA=0.0223089
+NFS=6.6E10     TOX=1.0E-7      LD=1.698E-9        UO=862.425
+XJ=6.4666E-7   THETA=1.0E-5    CGSO=9.09E-9       L=2.5E-6
+W=0.9E-2)
*.ENDS
*
*TN0110 MODEL
*
.MODEL TN0110   NMOS (LEVEL=3   RS=0.205           NSUB=1.0E15
+DELTA=0.1      KAPPA=0.0506    TPG=1              CGDO=3.1716E-9
+RD=0.239       VTO=1.000       VMAX=1.0E7         ETA=0.0223089
+NFS=6.6E10     TOX=1.0E-7      LD=1.698E-9        UO=862.425
+XJ=6.4666E-7   THETA=1.0E-5    CGSO=9.09E-9       L=2.5E-6
+W=0.9E-2)
*.ENDS
*
*TN0604 MODEL
*
.MODEL TN0604   NMOS (LEVEL=3   RS=3.56E-3         NSUB=1.0E15
+DELTA=0.1      KAPPA=0.10123   TPG=1              CGDO=4.3432E-11
+RD=0.0239      VTO=1.327       VMAX=1.0E7         ETA=0.0223089
+NFS=6.6E10     TOX=1.0E-7      LD=1.698E-9        UO=862.425
+XJ=6.4666E-7   THETA=1.0E-5    CGSO=1.21798E-10   L=2.5E-6
+W=2.0E-2)
*.ENDS
*
*TN0606 MODEL
*
.MODEL TN0606   NMOS (LEVEL=3   RS=0.100           NSUB=3.00E15
+DELTA=0.1      KAPPA=0.10123   TPG=1              CGDO=4.3432E-11
+RD=0.45        VTO=1.300       VMAX=1.0E7         ETA=0.0223089
+NFS=6.6E10     TOX=1.00E-7     LD=1.698E-9        UO=862.425
+XJ=6.46E-7     THETA=1.0E-5    CGSO=1.2179-10     L=2.5E-6
+W=2.0E-2)
*.ENDS
*
*TN0610 MODEL
*
.MODEL TN0610   NMOS (LEVEL=3   RS=0.100           NSUB=3.00E15
+DELTA=0.1      KAPPA=0.10123   TPG=1              CGDO=4.3432E-11
+RD=0.45        VTO=1.300       VMAX=1.0E7         ETA=0.0223089
+NFS=6.6E10     TOX=1.00E-7     LD=1.698E-9        UO=862.425
+XJ=6.46E-7     THETA=1.0E-5    CGSO=1.2179-10     L=2.5E-6
+W=2.0E-2)
*.ENDS
*
*TN0620 MODEL
*
.MODEL TN0620   NMOS (LEVEL=3   RS=0.1             NSUB=1.0E14
+DELTA=0.1      KAPPA=0.10123   TPG=1              CGDO=2.743E-10
+RD=3.3         VTO=1.34        VMAX=1.0E7         ETA=0.0223089
+NFS=6.6E10     TOX=1.0E-7      LD=1.698E-9        UO=862.425
+XJ=6.4666E-7   THETA=1.0E-5    CGSO=1.50E-8       L=2.5E-6
+W=1.6E-2)
*.ENDS
*
*TN0702 MODEL
*
.MODEL TN0702   NMOS (LEVEL=3   RS=3.56E-3         NSUB=1.0E15
+DELTA=0.1      KAPPA=0.10123   TPG=1              CGDO=8.3432E-10
+RD=0.2039      VTO=0.900       VMAX=1.0E7         ETA=0.0223089
+NFS=6.6E10     TOX=7E-8        LD=1.698E-9        UO=862.425
+XJ=6.4666E-7   THETA=1.0E-5    CGSO=5.21798E-9    L=2.5E-6
+W=2.0E-2)
*.ENDS
*
*TN2106 MODEL
*
.MODEL TN2106   NMOS (LEVEL=3   RS=0.0205          NSUB=1.0E15
+DELTA=0.1      KAPPA=0.0506    TPG=1              CGDO=6.1716E-10
+RD=0.12        VTO=1.200       VMAX=1.0E7         ETA=0.0223089
+NFS=6.6E10     TOX=0.80E-7     LD=1.698E-9        UO=862.425
+XJ=6.4666E-7   THETA=1.0E-5    CGSO=9.10E-9       L=2.5E-6
+W=0.5E-2)
*.ENDS
*
*TN2124 MODEL
*
.MODEL TN2124 NMOS (LEVEL=3     RS=0.02            NSUB=1.0E15
+DELTA=0.1      KAPPA=0.0506    TPG=1              CGDO=6.1716E-10
+RD=4.5         VTO=1.100       VMAX=1.0E7         ETA=0.0223089
+NFS=6.6E10     TOX=0.75E-7     LD=1.698E-9        UO=862.425
+XJ=6.4666E-7   THETA=1.0E-5    CGSO=3.4E-9        L=2.5E-6
+W=0.85E-2)
*.ENDS
*
*TN2130 MODEL
*
.MODEL TN2130 NMOS (LEVEL=3     RS=0.0205          NSUB=1.0E15
+DELTA=0.1      KAPPA=0.0506    TPG=1              CGDO=6.1716E-10
+RD=10          VTO=1.500       VMAX=1.0E7         ETA=0.0223089
+NFS=6.6E10     TOX=0.75E-7     LD=1.698E-9        UO=862.425
+XJ=6.4666E-7   THETA=1.0E-5    CGSO=9.10E-9       L=3.5E-6
+W=0.5E-2)
*.ENDS
*
*TN2501 MODEL
*
.MODEL TN2501   NMOS (LEVEL=3   RS=0.07            NSUB=1.0E15
+DELTA=0.1      KAPPA=0.20      TPG=1              CGDO=3.1716E-10
+RD=1.2         VTO=0.700       VMAX=1.0E7         ETA=0.0223089
+NFS=6.6E10     TOX=725E-10     LD=1.698E-9        UO=862.425
+XJ=6.4666E-7   THETA=1.0E-5    CGSO=2.50E-9       L=2.0E-6
+W=59E-3)
*.ENDS
*
*TN2504 MODEL
*
.MODEL TN2504   NMOS (LEVEL=3   RS=0.03            NSUB=1.0E15
+DELTA=0.1      KAPPA=0.20      TPG=1              CGDO=3.1716E-10
+RD=0.1         VTO=1.100       VMAX=1.0E7         ETA=0.0223089
+NFS=6.6E10     TOX=750E-10     LD=1.698E-9        UO=862.425
+XJ=6.4666E-7   THETA=1.0E-5    CGSO=2.50E-9       L=2.0E-6
+W=59E-3        KP=5.5E-6)
*.ENDS
*
*TN2510 MODEL
*
.MODEL TN2510   NMOS (LEVEL=3   RS=0.02            NSUB=3.0E15
+DELTA=1.0      KAPPA=1.20      TPG=1              CGDO=1.916E-10
+RD=0.23        VTO=1.500       VMAX=5.0E6         ETA=0.053089
+NFS=6.6E10     TOX=725E-10     LD=1.698E-9        UO=862.425
+XJ=6.4666E-7   THETA=1.0E-5    CGSO=1.750E-9      L=2.0E-6
+W=59E-3        KP=5.5E-6)
*.ENDS
*
*TN2524 MODEL
*
.MODEL TN2524   NMOS (LEVEL=3   RS=0.02            NSUB=3.0E15
+DELTA=1.0      KAPPA=1.20      TPG=1              CGDO=1.916E-10
+RD=2.5         VTO=1.500       VMAX=5.0E6         ETA=0.053089
+NFS=6.6E10     TOX=725E-10     LD=1.698E-9        UO=862.425
+XJ=6.4666E-7   THETA=1.0E-5    CGSO=1.750E-9      L=2.0E-6
+W=59E-3        KP=2.5E-6)
*.ENDS
*
*TN2535 MODEL
*
.MODEL TN2535   NMOS (LEVEL=3   RS=0.205           NSUB=5.0E14
+DELTA=0.1      KAPPA=0.20      TPG=1              CGDO=3.1716E-10
+RD=6.5         VTO=1.500       VMAX=1.0E7         ETA=0.0223089
+NFS=6.6E10     TOX=725E-10     LD=1.698E-9        UO=862.425
+XJ=6.4666E-7   THETA=1.0E-5    CGSO=2.50E-9       L=2.0E-6
+W=59E-3        KP=5.5E-6)
*.ENDS
*
*TN2540 MODEL
*
.MODEL TN2540   NMOS (LEVEL=3   RS=0.205           NSUB=5.0E14
+DELTA=0.1      KAPPA=0.20      TPG=1              CGDO=3.1716E-10
+RD=6.5         VTO=1.500       VMAX=1.0E7         ETA=0.0223089
+NFS=6.6E10     TOX=725E-10     LD=1.698E-9        UO=862.425
+XJ=6.4666E-7   THETA=1.0E-5    CGSO=2.50E-9       L=2.0E-6
+W=59E-3        KP=5.5E-6)
*.ENDS
*
*TN2640 MODEL
*
.MODEL TN2640   NMOS (LEVEL=3   RS=0.07            NSUB=1.5E15
+DELTA=1.0      KAPPA=1.20      TPG=1              CGDO=1.16E-10
+RD=2.0         VTO=1.20        VMAX=5.0E6         ETA=0.053089
+NFS=6.6E10     TOX=750E-10     LD=1.698E-9        UO=862.425
+XJ=6.4666E-7   THETA=1.0E-5    CGSO=6.13E-10      L=2.5E-6
+W=100E-3       KP=3.5E-6)
*.ENDS
*
*TP0604 MODEL
*
.MODEL TP0604   PMOS (LEVEL=3   RS=0.0238          NSUB=5.0E14
+DELTA=0.1      KAPPA=0.08214   TPG=-1             CGDO=5.22123E-11
+RD=0.0239      VTO=-1.90       VMAX=3E6           ETA=0.121
+NFS=3.3841E11  TOX=1.0E-7      LD=1.140E-9        UO=365.45
+XJ=6.5E-7      THETA=4.06E-5   CGSO=8.532E-11     L=2.5E-6
+W=2.0E-2)
*.ENDS
*
*TP0606 MODEL
*
.MODEL TP0606   PMOS (LEVEL=3   RS=0.200           NSUB=3.00E15
+DELTA=0.1      KAPPA=0.0821    TPG=-1             CGDO=5.2212E-11
+RD=0.854       VTO=-2.100      VMAX=3.0E6         ETA=0.12098
+NFS=3.384E11   TOX=1.00E-7     LD=1.1400E-9       UO=365.45
+XJ=6.5E-7      THETA=4.063E-5  CGSO=8.532E-11     L=2.5E-6
+W=2.0E-2)
*.ENDS
*
*TP0610T MODEL
*
.MODEL TP0610T  PMOS (LEVEL=3   RS=0.73            NSUB=5.0E14
+DELTA=0.1      KAPPA=0.0411    TPG=-1             CGDO=6.1716E-10
+RD=1.91        VTO=-2.10       VMAX=3.0E6         ETA=0.12098
+NFS=3.384E11   TOX=1.0E-7      LD=1.6980E-9       UO=865.45
+XJ=6.5E-7      THETA=4.063E-5  CGSO=9.10E-9       L=2.5E-6
+W=0.5E-2)
*.ENDS
*
*TP0620 MODEL
*
.MODEL TP0620   PMOS (LEVEL=3   RS=0.200           NSUB=1.50E15
+DELTA=0.1      KAPPA=0.0821    TPG=-1             CGDO=2.812E-10
+RD=5.854       VTO=-2.100      VMAX=3.0E6         ETA=0.12098
+NFS=3.384E11   TOX=1.00E-7     LD=1.1400E-9       UO=365.45
+XJ=6.5E-7      THETA=4.063E-5  CGSO=1.62E-8       L=2.5E-6
+W=1.6E-2)
*.ENDS
*
*TP2104 MODEL
*
.MODEL TP2104   PMOS (LEVEL=3   RS=0.73            NSUB=5.0E14
+DELTA=0.1      KAPPA=0.0411    TPG=-1             CGDO=6.1716E-10
+RD=1.91        VTO=-2.10       VMAX=3.0E6         ETA=0.12098
+NFS=3.384E11   TOX=1.0E-7      LD=1.6980E-9       UO=865.45
+XJ=6.5E-7      THETA=4.063E-5  CGSO=9.10E-9       L=2.5E-6
+W=0.5E-2)
*.ENDS
*
*TP2502 MODEL
*
.MODEL TP2502   PMOS (LEVEL=3   RS=0.03            NSUB=1.0E15
+DELTA=1.0      KAPPA=1.20      TPG=1              CGDO=3.172E-10
+RD=0.25        VTO=-2.0        VMAX=5.0E6         ETA=0.053089
+NFS=6.6E10     TOX=725E-10     LD=1.698E-9        UO=862.425
+XJ=6.4666E-7   THETA=1.0E-5    CGSO=2.750E-9      L=2.0E-6
+W=60E-3        KP=4.3E-6)
*.ENDS
*
*TP2510 MODEL
*
.MODEL TP2510   PMOS (LEVEL=3   RS=0.05            NSUB=1.0E15
+DELTA=1.0      KAPPA=1.20      TPG=1              CGDO=3.172E-10
+RD=0.90        VTO=-2.10       VMAX=5.0E6         ETA=0.053089
+NFS=6.6E10     TOX=725E-10     LD=1.698E-9        UO=862.425
+XJ=6.4666E-7   THETA=1.0E-5    CGSO=1.750E-9      L=2.0E-6
+W=59E-3        KP=2.5E-6)
*.ENDS
*
*TP2520 MODEL
*
.MODEL TP2520   PMOS (LEVEL=3   RS=0.20            NSUB=1.5E15
+DELTA=1.0      KAPPA=1.20      TPG=-1             CGDO=1.916E-10
+RD=5.5         VTO=-2.10       VMAX=5.0E6         ETA=0.053089
+NFS=6.6E10     TOX=725E-10     LD=1.698E-9        UO=862.425
+XJ=6.4666E-7   THETA=1.0E-5    CGSO=1.750E-9      L=2.0E-6
+W=59E-3        KP=2.5E-6)
*.ENDS
*
*TP2522 MODEL
*
.MODEL TP2522   PMOS (LEVEL=3   RS=0.20            NSUB=1.5E15
+DELTA=1.0      KAPPA=1.20      TPG=-1             CGDO=1.916E-10
+RD=5.5         VTO=-2.10       VMAX=5.0E6         ETA=0.053089
+NFS=6.6E10     TOX=725E-10     LD=1.698E-9        UO=862.425
+XJ=6.4666E-7   THETA=1.0E-5    CGSO=1.750E-9      L=2.0E-6
+W=59E-3        KP=2.5E-6)
*.ENDS
*
*TP2535 MODEL
*
.MODEL TP2535   PMOS (LEVEL=3   RS=0.25            NSUB=1.5E15
+DELTA=1.0      KAPPA=1.20      TPG=-1             CGDO=1.916E-10
+RD=17          VTO=-2.10       VMAX=5.0E6         ETA=0.053089
+NFS=6.6E10     TOX=725E-10     LD=1.698E-9        UO=862.425
+XJ=6.4666E-7   THETA=1.0E-5    CGSO=1.750E-9      L=2.0E-6
+W=59E-3        KP=2.5E-6)
*.ENDS
*
*TP2540 MODEL
*
.MODEL TP2540   PMOS (LEVEL=3   RS=0.25            NSUB=1.5E15
+DELTA=1.0      KAPPA=1.20      TPG=-1             CGDO=1.916E-10
+RD=17          VTO=-2.10       VMAX=5.0E6         ETA=0.053089
+NFS=6.6E10     TOX=725E-10     LD=1.698E-9        UO=862.425
+XJ=6.4666E-7   THETA=1.0E-5    CGSO=1.750E-9      L=2.0E-6
+W=59E-3        KP=2.5E-6)
*.ENDS
*
*TP2635 MODEL
*
.MODEL TP2635   PMOS (LEVEL=3   RS=0.20            NSUB=1.5E15
+DELTA=1.0      KAPPA=1.20      TPG=-1             CGDO=1.916E-10
+RD=9.5         VTO=-1.10       VMAX=5.0E6         ETA=0.053089
+NFS=6.6E10     TOX=750E-10     LD=1.698E-9        UO=862.425
+XJ=6.4666E-7   THETA=1.0E-5    CGSO=1.750E-9      L=2.5E-6
+W=100E-3       KP=2.5E-6)
*.ENDS
*
*TP2640 MODEL
*
.MODEL TP2640   PMOS (LEVEL=3   RS=0.20            NSUB=1.5E15
+DELTA=1.0      KAPPA=1.20      TPG=-1             CGDO=1.916E-10
+RD=9.5         VTO=-1.10       VMAX=5.0E6         ETA=0.053089 
+NFS=6.6E10     TOX=750E-10     LD=1.698E-9        UO=862.425
+XJ=6.4666E-7   THETA=1.0E-5    CGSO=1.750E-9      L=2.5E-6
+W=100E-3       KP=2.5E-6)
*.ENDS
*
*VN0104 MODEL
*
.MODEL VN0104   NMOS (LEVEL=3   RS=0.205           NSUB=1.0E15
+DELTA=0.1      KAPPA=0.0506    TPG=1              CGDO=3.1716E-9
+RD=0.239       VTO=1.000       VMAX=1.0E7         ETA=0.0223089
+NFS=6.6E10     TOX=1.0E-7      LD=1.698E-9        UO=862.425
+XJ=6.4666E-7   THETA=1.0E-5    CGSO=9.09E-9       L=2.5E-6
+W=0.8E-2)
*.ENDS
*
*VN0106 MODEL
*
.MODEL VN0106   NMOS (LEVEL=3   RS=0.205           NSUB=1.0E15
+DELTA=0.1      KAPPA=0.0506    TPG=1              CGDO=3.1716E-9
+RD=0.239       VTO=1.000       VMAX=1.0E7         ETA=0.0223089
+NFS=6.6E10     TOX=1.0E-7      LD=1.698E-9        UO=862.425
+XJ=6.4666E-7   THETA=1.0E-5    CGSO=9.09E-9       L=2.5E-6
+W=0.8E-2)
*.ENDS
*
*VN0300L MODEL
*
.MODEL VN0300L  NMOS (LEVEL=3   RS=0.03            NSUB=1.0E15
+DELTA=0.1      KAPPA=0.20      TPG=1              CGDO=3.1716E-10
+RD=0.1         VTO=1.100       VMAX=1.0E7         ETA=0.0223089
+NFS=6.6E10     TOX=750E-10     LD=1.698E-9        UO=862.425
+XJ=6.4666E-7   THETA=1.0E-5    CGSO=2.50E-9       L=2.0E-6
+W=59E-3        KP=5.5E-6)
*.ENDS
*
*VN0606L MODEL
*
.MODEL VN0606L  NMOS (LEVEL=3   RS=0.0205          NSUB=1.0E15
+DELTA=0.1      KAPPA=0.0506    TPG=1              CGDO=6.1716E-10
+RD=0.12        VTO=1.200       VMAX=1.0E7         ETA=0.0223089
+NFS=6.6E10     TOX=0.80E-7     LD=1.698E-9        UO=862.425
+XJ=6.4666E-7   THETA=1.0E-5    CGSO=9.10E-9       L=2.5E-6
+W=0.5E-2)
*.ENDS
*
*VN0808L MODEL
*
.MODEL VN0808L  NMOS (LEVEL=3   RS=0.0405          NSUB=1.0E15
+DELTA=0.1      KAPPA=0.0506    TPG=1              CGDO=6.1716E-10
+RD=1.22        VTO=2.00        VMAX=1.0E7         ETA=0.0223089
+NFS=6.6E10     TOX=1.0E-7      LD=1.698E-9        UO=862.425
+XJ=6.4666E-7   THETA=1.0E-5    CGSO=9.10E-9       L=2.5E-6
+W=0.5E-2)
*.ENDS
*
*VN0550 MODEL
*
.MODEL VN0550   NMOS (LEVEL=3   RS=1.0             NSUB=5.0E15
+DELTA=0.1      KAPPA=0.0612    TPG=1              CGDO=2.8432E-10
+RD=40.00       VTO=3.00        VMAX=5.0E4         ETA=0.20
+NFS=6.466E10   TOX=1.0E-7      LD=1.6938E-9       UO=862
+XJ=6.46E-7     THETA=1.0E-5    CGSO=3.8198E-9     L=4.5E-6
+W=0.95E-2)
*.ENDS
*
*VN10K MODEL
*
.MODEL VN10K    NMOS (LEVEL=3   RS=0.205           NSUB=1.0E15
+DELTA=0.1      KAPPA=0.0506    TPG=1              CGDO=3.1716E-9
+RD=0.239       VTO=1.000       VMAX=1.0E7         ETA=0.0223089
+NFS=6.6E10     TOX=1.0E-7      LD=1.698E-9        UO=862.425
+XJ=6.4666E-7   THETA=1.0E-5    CGSO=9.09E-9       L=2.5E-6
+W=0.8E-2)
*.ENDS
*
*VN1206L MODEL
*
.MODEL VN1206L  NMOS (LEVEL=3   RS=0.02            NSUB=3.0E15
+DELTA=1.0      KAPPA=1.20      TPG=1              CGDO=1.916E-10
+RD=0.23        VTO=1.500       VMAX=5.0E6         ETA=0.053089
+NFS=6.6E10     TOX=725E-10     LD=1.698E-9        UO=862.425
+XJ=6.4666E-7   THETA=1.0E-5    CGSO=1.750E-9      L=2.0E-6
+W=59E-3        KP=5.5E-6)
*.ENDS
*
*VN1306 MODEL
*
.MODEL VN1306   NMOS (LEVEL=3   RS=0.0205          NSUB=1.0E15
+DELTA=0.1      KAPPA=0.0506    TPG=1              CGDO=6.1716E-10
+RD=1.87        VTO=2.400       VMAX=1.0E7         ETA=0.0223089
+NFS=6.6E10     TOX=1.0E-7      LD=1.698E-9        UO=862.425
+XJ=6.4666E-7   THETA=1.0E-5    CGSO=9.10E-9       L=2.5E-6
+W=0.4E-2)
*.ENDS
*
*VN1310 MODEL
*
.MODEL VN1310   NMOS (LEVEL=3   RS=0.0205          NSUB=1.0E15
+DELTA=0.1      KAPPA=0.0506    TPG=1              CGDO=6.1716E-10
+RD=1.87        VTO=2.400       VMAX=1.0E7         ETA=0.0223089
+NFS=6.6E10     TOX=1.0E-7      LD=1.698E-9        UO=862.425
+XJ=6.4666E-7   THETA=1.0E-5    CGSO=9.10E-9       L=2.5E-6
+W=0.4E-2)
*.ENDS
*
*VN2106 MODEL
*
.MODEL VN2106   NMOS (LEVEL=3   RS=0.0405          NSUB=1.0E15
+DELTA=0.1      KAPPA=0.0506    TPG=1              CGDO=6.1716E-10
+RD=1.22        VTO=2.00        VMAX=1.0E7         ETA=0.0223089
+NFS=6.6E10     TOX=1.0E-7      LD=1.698E-9        UO=862.425
+XJ=6.4666E-7   THETA=1.0E-5    CGSO=9.10E-9       L=2.5E-6
+W=0.5E-2)
*.ENDS
*
*VN2110 MODEL
*
.MODEL VN2110   NMOS (LEVEL=3   RS=0.0405          NSUB=1.0E15
+DELTA=0.1      KAPPA=0.0506    TPG=1              CGDO=6.1716E-10
+RD=1.22        VTO=2.00        VMAX=1.0E7         ETA=0.0223089
+NFS=6.6E10     TOX=1.0E-7      LD=1.698E-9        UO=862.425
+XJ=6.4666E-7   THETA=1.0E-5    CGSO=9.10E-9       L=2.5E-6
+W=0.5E-2)
*.ENDS
*
*VN2210  MODEL
*
.MODEL VN2210   NMOS (LEVEL=3   RS=0.02            NSUB=3.0E15
+DELTA=1.0      KAPPA=1.20      TPG=1              CGDO=1.61E-10
+RD=0.03        VTO=1.650       VMAX=5.0E6         ETA=0.053089
+NFS=6.6E10     TOX=725E-10     LD=1.698E-9        UO=862.425
+XJ=6.4666E-7   THETA=1.0E-5    CGSO=4.850E-9      L=4.0E-6
+W=85E-3)
*.ENDS
*
*VN2222LL MODEL
*
.MODEL VN2222LL NMOS (LEVEL=3   RS=0.205           NSUB=1.0E15
+DELTA=0.1      KAPPA=0.0506    TPG=1              CGDO=3.1716E-9
+RD=0.439       VTO=1.600       VMAX=1.0E7         ETA=0.0223089
+NFS=6.6E10     TOX=1.0E-7      LD=1.698E-9        UO=862.425
+XJ=6.4666E-7   THETA=1.0E-5    CGSO=9.09E-9       L=2.5E-6
+W=0.8E-2)
*.ENDS
*
*VN2222 MODEL
*
.MODEL VN2222   NMOS (LEVEL=3   RS=0.02            NSUB=3.0E15
+DELTA=1.0      KAPPA=1.20      TPG=1              CGDO=1.61E-10
+RD=0.3         VTO=1.650       VMAX=5.0E6         ETA=0.053089
+NFS=6.6E10     TOX=725E-10     LD=1.698E-9        UO=862.425
+XJ=6.4666E-7   THETA=1.0E-5    CGSO=4.850E-9      L=4.0E-6
+W=85E-3)
*.ENDS
*
*VN2224 MODEL
*
.MODEL VN2224   NMOS (LEVEL=3   RS=0.02            NSUB=3.0E15
+DELTA=1.0      KAPPA=1.20      TPG=1              CGDO=1.61E-10
+RD=0.3         VTO=1.650       VMAX=5.0E6         ETA=0.053089
+NFS=6.6E10     TOX=725E-10     LD=1.698E-9        UO=862.425
+XJ=6.4666E-7   THETA=1.0E-5    CGSO=4.850E-9      L=4.0E-6
+W=85E-3)
*.ENDS
*
*VN2406L MODEL
*
.MODEL VN2406L  NMOS (LEVEL=3   RS=0.02            NSUB=3.0E15
+DELTA=1.0      KAPPA=1.20      TPG=1              CGDO=1.916E-10
+RD=2.5         VTO=1.650       VMAX=5.0E6         ETA=0.053089
+NFS=6.6E10     TOX=725E-10     LD=1.698E-9        UO=862.425
+XJ=6.4666E-7   THETA=1.0E-5    CGSO=1.750E-9      L=2.0E-6
+W=59E-3        KP=2.5E-6)
*.ENDS
*
*VN2410L MODEL
*
.MODEL VN2410L  NMOS (LEVEL=3   RS=0.02            NSUB=3.0E15
+DELTA=1.0      KAPPA=1.20      TPG=1              CGDO=1.916E-10
+RD=2.5         VTO=1.650       VMAX=5.0E6         ETA=0.053089
+NFS=6.6E10     TOX=725E-10     LD=1.698E-9        UO=862.425
+XJ=6.4666E-7   THETA=1.0E-5    CGSO=1.750E-9      L=2.0E-6
+W=59E-3        KP=2.5E-6)
*.ENDS
*
*VN3205  MODEL
*
.MODEL VN3205 NMOS (LEVEL=3     RS=0.03            NSUB=1.0E15
+DELTA=0.1      KAPPA=0.20      TPG=1              CGDO=1.33E-10
+RD=0.07        VTO=1.100       VMAX=1.0E7         ETA=0.0223089
+NFS=6.6E10     TOX=750E-10     LD=1.698E-9        UO=862.425
+XJ=6.4666E-7   THETA=1.0E-5    CGSO=5.10E-10      L=2.0E-6
+W=170E-3       KP=7.5E-6)
*.ENDS
*
*VN3515L MODEL
*
.MODEL VN3515L  NMOS (LEVEL=3   RS=0.205           NSUB=5.0E14
+DELTA=0.1      KAPPA=0.20      TPG=1              CGDO=3.1716E-10
+RD=6.5         VTO=1.400       VMAX=1.0E7         ETA=0.0223089
+NFS=6.6E10     TOX=725E-10     LD=1.698E-9        UO=862.425
+XJ=6.4666E-7   THETA=1.0E-5    CGSO=2.50E-9       L=2.0E-6
+W=59E-3        KP=5.5E-6)
*.ENDS
*
*VN4012L MODEL
*
.MODEL VN4012L  NMOS (LEVEL=3   RS=0.205           NSUB=5.0E14
+DELTA=0.1      KAPPA=0.20      TPG=1              CGDO=3.1716E-10
+RD=6.5         VTO=1.400       VMAX=1.0E7         ETA=0.0223089
+NFS=6.6E10     TOX=725E-10     LD=1.698E-9        UO=862.425
+XJ=6.4666E-7   THETA=1.0E-5    CGSO=2.50E-9       L=2.0E-6
+W=59E-3        KP=5.5E-6)
*.ENDS
*
*VP0104 MODEL
*
.MODEL VP0104   PMOS (LEVEL=3   RS=0.43            NSUB=5.0E14
+DELTA=0.1      KAPPA=0.0411    TPG=-1             CGDO=2.6106E-11
+RD=4.23        VTO=-2.850      VMAX=3.0E6         ETA=0.12098
+NFS=3.384E11   TOX=1.10E-7     LD=1.1400E-9       UO=865.45
+XJ=6.5E-7      THETA=4.063E-5  CGSO=4.2666E-11    L=2.5E-6
+W=0.9E-2)
*.ENDS
*
*VP0106 MODEL
*
.MODEL VP0106   PMOS (LEVEL=3   RS=0.43            NSUB=5.0E14
+DELTA=0.1      KAPPA=0.0411    TPG=-1             CGDO=2.6106E-11
+RD=4.23        VTO=-2.850      VMAX=3.0E6         ETA=0.12098
+NFS=3.384E11   TOX=1.10E-7     LD=1.1400E-9       UO=865.45
+XJ=6.5E-7      THETA=4.063E-5  CGSO=4.2666E-11    L=2.5E-6
+W=0.9E-2)
*.ENDS
*
*VP0109 MODEL
*
.MODEL VP0109   PMOS (LEVEL=3   RS=0.43            NSUB=5.0E14
+DELTA=0.1      KAPPA=0.0411    TPG=-1             CGDO=2.6106E-11
+RD=4.23        VTO=-2.850      VMAX=3.0E6         ETA=0.12098
+NFS=3.384E11   TOX=1.10E-7     LD=1.1400E-9       UO=865.45
+XJ=6.5E-7      THETA=4.063E-5  CGSO=4.2666E-11    L=2.5E-6
+W=0.9E-2)
*.ENDS
*
*VP0550 MODEL
*
.MODEL VP0550   PMOS (LEVEL=3   RS=0.30            NSUB=5.0E15
+DELTA=0.1      KAPPA=0.0612    TPG=-1             CGDO=2.8432E-10
+RD=75.00       VTO=-3.50       VMAX=5.0E4         ETA=0.20
+NFS=6.466E10   TOX=1.0E-7      LD=1.6938E-9       UO=862
+XJ=6.46E-7     THETA=1.0E-5    CGSO=3.8198E-9     L=4.0E-6
+W=1.0E-2)
*.ENDS
*
*VP0808L MODEL
*
.MODEL VP0808L  PMOS (LEVEL=3   RS=0.05            NSUB=1.0E15
+DELTA=1.0      KAPPA=1.20      TPG=1              CGDO=3.172E-10
+RD=0.90        VTO=-2.10       VMAX=5.0E6         ETA=0.053089
+NFS=6.6E10     TOX=725E-10     LD=1.698E-9        UO=862.425
+XJ=6.4666E-7   THETA=1.0E-5    CGSO=1.750E-9      L=2.0E-6
+W=59E-3        KP=2.5E-6)
*.ENDS
*
*VP1304 MODEL
*
.MODEL VP1304   PMOS (LEVEL=3   RS=0.93            NSUB=5.0E14
+DELTA=0.1      KAPPA=0.0411    TPG=-1             CGDO=6.1716E-10
+RD=8.46        VTO=-2.950      VMAX=3.0E6         ETA=0.12098
+NFS=3.384E11   TOX=1.0E-7      LD=1.6980E-9       UO=865.45
+XJ=6.5E-7      THETA=4.063E-5  CGSO=9.10E-9       L=2.5E-6
+W=0.4E-2)
*.ENDS
*
*VP1306 MODEL
*
.MODEL VP1306   PMOS (LEVEL=3   RS=0.93            NSUB=5.0E14
+DELTA=0.1      KAPPA=0.0411    TPG=-1             CGDO=6.1716E-10
+RD=8.46        VTO=-2.950      VMAX=3.0E6         ETA=0.12098
+NFS=3.384E11   TOX=1.0E-7      LD=1.6980E-9       UO=865.45
+XJ=6.5E-7      THETA=4.063E-5  CGSO=9.10E-9       L=2.5E-6
+W=0.4E-2)
*.ENDS
*
*VP1310 MODEL
*
.MODEL VP1310   PMOS (LEVEL=3   RS=0.93            NSUB=5.0E14
+DELTA=0.1      KAPPA=0.0411    TPG=-1             CGDO=6.1716E-10
+RD=8.46        VTO=-2.950      VMAX=3.0E6         ETA=0.12098
+NFS=3.384E11   TOX=1.0E-7      LD=1.6980E-9       UO=865.45
+XJ=6.5E-7      THETA=4.063E-5  CGSO=9.10E-9       L=2.5E-6
+W=0.4E-2)
*.ENDS
*
*VP2106 MODEL
*
.MODEL VP2106   PMOS (LEVEL=3   RS=0.73            NSUB=5.0E14
+DELTA=0.1      KAPPA=0.0411    TPG=-1             CGDO=6.1716E-10
+RD=1.91        VTO=-2.30       VMAX=3.0E6         ETA=0.12098
+NFS=3.384E11   TOX=1.0E-7      LD=1.6980E-9       UO=865.45
+XJ=6.5E-7      THETA=4.063E-5  CGSO=9.10E-9       L=2.5E-6
+W=0.5E-2)
*.ENDS
*
*VP2110 MODEL
*
.MODEL VP2110   PMOS (LEVEL=3   RS=0.73            NSUB=5.0E14
+DELTA=0.1      KAPPA=0.0411    TPG=-1             CGDO=6.1716E-10
+RD=1.91        VTO=-2.30       VMAX=3.0E6         ETA=0.12098
+NFS=3.384E11   TOX=1.0E-7      LD=1.6980E-9       UO=865.45
+XJ=6.5E-7      THETA=4.063E-5  CGSO=9.10E-9       L=2.5E-6
+W=0.5E-2)
*.ENDS
*
*VP2206 MODEL
*
.MODEL VP2206   PMOS (LEVEL=3   RS=0.08            NSUB=5.0E14
+DELTA=0.1      KAPPA=0.0411    TPG=-1             CGDO=1.61E-10
+RD=0.30        VTO=-2.30       VMAX=3.0E6         ETA=0.12098
+NFS=3.384E11   TOX=1.0E-7      LD=1.1400E-9       UO=865.45
+XJ=6.5E-7      THETA=4.063E-5  CGSO=4.850E-11     L=4.5E-6
+W=80E-3)
*.ENDS
*