*Zener-BZX384.lib
*Zener Diode library.  BZX384 Series.
*Data from NXP Spice Models and arranged for LTSpice.
*Nick Mitchell. 03/11/2011.
*
*Keep this file as a .lib library file and save it in the LTSpiceIV/lib/sub  directory.  Use '.include Zener-BZX384.lib' in the schematic.
*OR
*Append the following list to the 'standard.dio' file in LTSpiceIV/lib/cmp directory.  Use a basic text editor or the text editor in LTSpice.

.model BZX384B2V4 D(Is=1.033E-15 N=1.001 BV=2.4 IBV=0.005 Rs=0.387 Cjo=3.615E-10 Vj=0.5762 M=0.2715 Fc=0.5 Iave=250M Vpk=2.4 Mfg=NXP Type=ZENER)
.model BZX384B2V7 D(Is=1.033E-15 N=1.001 BV=2.7 IBV=0.005 Rs=0.387 Cjo=3.518E-10 Vj=0.6816 M=0.3174 Fc=0.5 Iave=250M Vpk=2.7 Mfg=NXP Type=ZENER)
.model BZX384B3V0 D(Is=1.033E-15 N=1.001 BV=3 IBV=0.005 Rs=0.387 Cjo=3.346E-10 Vj=0.6722 M=0.3162 Fc=0.5 Iave=250M Vpk=3 Mfg=NXP Type=ZENER)
.model BZX384B3V3 D(Is=1.033E-15 N=1.001 BV=3.3 IBV=0.005 Rs=0.387 Cjo=3.162E-10 Vj=0.6687 M=0.3164 Fc=0.5 Iave=250M Vpk=3.3 Mfg=NXP Type=ZENER)
.model BZX384B3V6 D(Is=1.033E-15 N=1.001 BV=3.6 IBV=0.005 Rs=0.387 Cjo=3.062E-10 Vj=0.6643 M=0.3168 Fc=0.5 Iave=250M Vpk=3.6 Mfg=NXP Type=ZENER)
.model BZX384B3V9 D(Is=1.033E-15 N=1.001 BV=3.9 IBV=0.005 Rs=0.387 Cjo=2.82E-10 Vj=0.6743 M=0.3219 Fc=0.5 Iave=250M Vpk=3.9 Mfg=NXP Type=ZENER)
.model BZX384B4V3 D(Is=1.033E-15 N=1.001 BV=4.3 IBV=0.005 Rs=0.387 Cjo=2.715E-10 Vj=0.7721 M=0.3557 Fc=0.5 Iave=250M Vpk=4.3 Mfg=NXP Type=ZENER)
.model BZX384B4V7 D(Is=1.033E-15 N=1.001 BV=4.7 IBV=0.005 Rs=0.387 Cjo=2.589E-10 Vj=0.8029 M=0.3636 Fc=0.5 Iave=250M Vpk=4.7 Mfg=NXP Type=ZENER)
.model BZX384B5V1 D(Is=1.033E-15 N=1.001 BV=5.1 IBV=0.005 Rs=0.387 Cjo=2.402E-10 Vj=0.7934 M=0.3578 Fc=0.5 Iave=250M Vpk=5.1 Mfg=NXP Type=ZENER)
.model BZX384B5V6 D(Is=1.033E-15 N=1.001 BV=5.6 IBV=0.005 Rs=0.387 Cjo=1.961E-10 Vj=0.9187 M=0.423 Fc=0.5 Iave=250M Vpk=5.6 Mfg=NXP Type=ZENER)
.model BZX384B6V2 D(Is=1.033E-15 N=1.001 BV=6.2 IBV=0.005 Rs=0.387 Cjo=1.732E-10 Vj=0.9334 M=0.4321 Fc=0.5 Iave=250M Vpk=6.2 Mfg=NXP Type=ZENER)
.model BZX384B6V8 D(Is=1.033E-15 N=1.001 BV=6.8 IBV=0.005 Rs=0.387 Cjo=1.519E-10 Vj=0.9041 M=0.4027 Fc=0.5 Iave=250M Vpk=6.8 Mfg=NXP Type=ZENER)
.model BZX384B7V5 D(Is=1.13E-14 N=1.103 BV=7.5 IBV=0.005 Rs=0.4798 Cjo=8.767E-11 Vj=0.5829 M=0.3299 Fc=0.5 Iave=250M Vpk=7.5 Mfg=NXP Type=ZENER)
.model BZX384B8V2 D(Is=1.13E-14 N=1.103 BV=8.2 IBV=0.005 Rs=0.4798 Cjo=7.562E-11 Vj=0.5765 M=0.3298 Fc=0.5 Iave=250M Vpk=8.2 Mfg=NXP Type=ZENER)
.model BZX384B9V1 D(Is=1.13E-14 N=1.103 BV=9.1 IBV=0.005 Rs=0.4798 Cjo=7.316E-11 Vj=0.5667 M=0.3295 Fc=0.5 Iave=250M Vpk=9.1 Mfg=NXP Type=ZENER)
.model BZX384B10 D(Is=1.13E-14 N=1.103 BV=10 IBV=0.005 Rs=0.4798 Cjo=6.004E-11 Vj=0.6305 M=0.3302 Fc=0.5 Iave=250M Vpk=10 Mfg=NXP Type=ZENER)
.model BZX384B11 D(Is=1.13E-14 N=1.103 BV=11 IBV=0.005 Rs=0.4798 Cjo=5.404E-11 Vj=0.5891 M=0.3295 Fc=0.5 Iave=250M Vpk=11 Mfg=NXP Type=ZENER)
.model BZX384B12 D(Is=1.13E-14 N=1.103 BV=12 IBV=0.005 Rs=0.4798 Cjo=4.928E-11 Vj=0.575 M=0.3292 Fc=0.5 Iave=250M Vpk=12 Mfg=NXP Type=ZENER)
.model BZX384B13 D(Is=1.13E-14 N=1.103 BV=13 IBV=0.005 Rs=0.4798 Cjo=4.377E-11 Vj=0.5656 M=0.3289 Fc=0.5 Iave=250M Vpk=13 Mfg=NXP Type=ZENER)
.model BZX384B15 D(Is=1.13E-14 N=1.103 BV=15 IBV=0.005 Rs=0.4798 Cjo=4.023E-11 Vj=0.6144 M=0.3297 Fc=0.5 Iave=250M Vpk=15 Mfg=NXP Type=ZENER)
.model BZX384B16 D(Is=1.13E-14 N=1.103 BV=16 IBV=0.005 Rs=0.4798 Cjo=3.509E-11 Vj=0.6502 M=0.3378 Fc=0.5 Iave=250M Vpk=16 Mfg=NXP Type=ZENER)
.model BZX384B18 D(Is=1.13E-14 N=1.103 BV=18 IBV=0.005 Rs=0.4798 Cjo=3.17E-11 Vj=0.6421 M=0.3327 Fc=0.5 Iave=250M Vpk=18 Mfg=NXP Type=ZENER)
.model BZX384B20 D(Is=1.13E-14 N=1.103 BV=20 IBV=0.005 Rs=0.4798 Cjo=2.915E-11 Vj=0.635 M=0.3362 Fc=0.5 Iave=250M Vpk=20 Mfg=NXP Type=ZENER)
.model BZX384B22 D(Is=1.13E-14 N=1.103 BV=22 IBV=0.005 Rs=0.4798 Cjo=2.701E-11 Vj=0.7087 M=0.3557 Fc=0.5 Iave=250M Vpk=22 Mfg=NXP Type=ZENER)
.model BZX384B24 D(Is=1.13E-14 N=1.103 BV=24 IBV=0.002 Rs=0.4798 Cjo=2.48E-11 Vj=0.7142 M=0.3513 Fc=0.5 Iave=250M Vpk=24 Mfg=NXP Type=ZENER)
.model BZX384B27 D(Is=1.13E-14 N=1.103 BV=27 IBV=0.002 Rs=0.4798 Cjo=2.233E-11 Vj=0.7107 M=0.3546 Fc=0.5 Iave=250M Vpk=27 Mfg=NXP Type=ZENER)
.model BZX384B30 D(Is=1.13E-14 N=1.103 BV=30 IBV=0.002 Rs=0.4798 Cjo=2.17E-011 Vj=0.6718 M=0.3465 Fc=0.5 Iave=250M Vpk=30 Mfg=NXP Type=ZENER)
.model BZX384B33 D(Is=1.13E-14 N=1.103 BV=33 IBV=0.002 Rs=0.4798 Cjo=2.019E-11 Vj=0.7645 M=0.3782 Fc=0.5 Iave=250M Vpk=33 Mfg=NXP Type=ZENER)
.model BZX384B36 D(Is=1.13E-14 N=1.103 BV=36 IBV=0.002 Rs=0.4798 Cjo=1.866E-11 Vj=0.7591 M=0.3771 Fc=0.5 Iave=250M Vpk=36 Mfg=NXP Type=ZENER)
.model BZX384B39 D(Is=1.13E-14 N=1.103 BV=39 IBV=0.002 Rs=0.4798 Cjo=1.772E-11 Vj=0.7471 M=0.3751 Fc=0.5 Iave=250M Vpk=39 Mfg=NXP Type=ZENER)
.model BZX384B43 D(Is=1.13E-14 N=1.103 BV=43 IBV=0.002 Rs=0.4798 Cjo=1.638E-11 Vj=0.7517 M=0.3762 Fc=0.5 Iave=250M Vpk=43 Mfg=NXP Type=ZENER)
.model BZX384B47 D(Is=1.13E-14 N=1.103 BV=47 IBV=0.002 Rs=0.4798 Cjo=1.707E-11 Vj=0.888 M=0.4248 Fc=0.5 Iave=250M Vpk=47 Mfg=NXP Type=ZENER)
.model BZX384B51 D(Is=1.13E-14 N=1.103 BV=51 IBV=0.002 Rs=0.4798 Cjo=1.602E-11 Vj=0.8454 M=0.4154 Fc=0.5 Iave=250M Vpk=51 Mfg=NXP Type=ZENER)
.model BZX384B56 D(Is=1.13E-14 N=1.103 BV=56 IBV=0.002 Rs=0.4798 Cjo=1.508E-11 Vj=0.8856 M=0.4177 Fc=0.5 Iave=250M Vpk=56 Mfg=NXP Type=ZENER)
.model BZX384B62 D(Is=1.13E-14 N=1.103 BV=62 IBV=0.002 Rs=0.4798 Cjo=1.403E-11 Vj=0.8053 M=0.4033 Fc=0.5 Iave=250M Vpk=62 Mfg=NXP Type=ZENER)
.model BZX384B68 D(Is=1.13E-14 N=1.103 BV=68 IBV=0.002 Rs=0.4798 Cjo=1.321E-11 Vj=0.7877 M=0.4021 Fc=0.5 Iave=250M Vpk=68 Mfg=NXP Type=ZENER)
.model BZX384B75 D(Is=1.13E-14 N=1.103 BV=75 IBV=0.002 Rs=0.4798 Cjo=1.246E-11 Vj=0.822 M=0.4052 Fc=0.5 Iave=250M Vpk=75 Mfg=NXP Type=ZENER)
